@<TRIPOS>MOLECULE
*****
 42 45 0 0 0
SMALL
GASTEIGER

@<TRIPOS>ATOM
      1 O           0.9658   -0.3079    0.0524 O.3     1  UNL1       -0.5062
      2 C           0.4437    0.2942    1.1726 C.ar    1  UNL1        0.1248
      3 C           0.5653    1.6577    1.4181 C.ar    1  UNL1        0.0271
      4 C           1.1534    2.6650    0.4951 C.ar    1  UNL1       -0.0092
      5 C           1.2337    3.9812    0.8967 C.ar    1  UNL1       -0.0189
      6 C           0.9892    4.3597    2.3108 C.3     1  UNL1        0.0404
      7 H          -0.0079    4.8020    2.0306 H       1  UNL1        0.0516
      8 N           1.9466    5.4108    2.8976 N.3     1  UNL1       -0.2948
      9 C           0.9472    6.4361    2.7126 C.3     1  UNL1        0.0035
     10 C           0.8884    6.5047    0.8893 C.3     1  UNL1       -0.0145
     11 C           1.3397    5.1189    0.1167 C.ar    1  UNL1       -0.0409
     12 C           1.9414    4.8664   -1.1505 C.ar    1  UNL1       -0.0582
     13 C           2.0541    3.5290   -1.5949 C.ar    1  UNL1       -0.0609
     14 C           1.5809    2.4484   -0.8448 C.ar    1  UNL1       -0.0536
     15 C           3.0604    6.1953    2.2492 C.3     1  UNL1       -0.0008
     16 C           3.6719    7.2846    3.1367 C.3     1  UNL1       -0.0430
     17 C           4.6501    6.6251    4.0194 C.3     1  UNL1       -0.0641
     18 C           0.3639    3.4229    3.2933 C.3     1  UNL1       -0.0072
     19 C           0.0789    2.0787    2.7101 C.ar    1  UNL1       -0.0344
     20 C          -0.5022    1.1941    3.6210 C.ar    1  UNL1       -0.0577
     21 C          -0.5742   -0.1421    3.3317 C.ar    1  UNL1       -0.0580
     22 C          -0.1122   -0.5912    2.0898 C.ar    1  UNL1       -0.0196
     23 H           1.8923   -0.0210    0.0240 H       1  UNL1        0.2922
     24 H           1.1633    7.3615    3.2499 H       1  UNL1        0.0430
     25 H           0.1332    6.0584    3.3712 H       1  UNL1        0.0430
     26 H           0.8051    7.6009    0.7979 H       1  UNL1        0.0326
     27 H           1.7891    6.8229    0.3297 H       1  UNL1        0.0326
     28 H           2.3456    5.6425   -1.7820 H       1  UNL1        0.0620
     29 H           2.4692    3.2971   -2.5914 H       1  UNL1        0.0618
     30 H           1.5457    1.4803   -1.3084 H       1  UNL1        0.0624
     31 H           3.7292    5.6762    1.5546 H       1  UNL1        0.0427
     32 H           2.7094    7.0059    1.6325 H       1  UNL1        0.0427
     33 H           4.1145    8.0646    2.4928 H       1  UNL1        0.0275
     34 H           2.9370    7.8475    3.7312 H       1  UNL1        0.0275
     35 H           5.3766    6.1265    3.3766 H       1  UNL1        0.0230
     36 H           5.1190    7.3794    4.6441 H       1  UNL1        0.0230
     37 H           4.1236    5.8885    4.6301 H       1  UNL1        0.0230
     38 H          -0.5587    3.8902    3.7059 H       1  UNL1        0.0332
     39 H           1.0202    3.2789    4.1505 H       1  UNL1        0.0332
     40 H          -0.8043    1.5620    4.6082 H       1  UNL1        0.0621
     41 H          -0.9324   -0.8366    4.0768 H       1  UNL1        0.0619
     42 H          -0.1470   -1.6466    1.8590 H       1  UNL1        0.0654
@<TRIPOS>BOND
     1     2     3   ar
     2     3     4    1
     3     4     5   ar
     4     5     6    1
     5     6     8    1
     6     8     9    1
     7     9    10    1
     8    10    11    1
     9     5    11   ar
    10    11    12   ar
    11    12    13   ar
    12    13    14   ar
    13     4    14   ar
    14    15    16    1
    15    16    17    1
    16     6    18    1
    17    18    19    1
    18     3    19   ar
    19    19    20   ar
    20    20    21   ar
    21    21    22   ar
    22     2    22   ar
    23     1    23    1
    24    15    31    1
    25    15    32    1
    26    16    33    1
    27    16    34    1
    28    17    35    1
    29    17    36    1
    30    17    37    1
    31     1     2    1
    32     6     7    1
    33     8    15    1
    34     9    24    1
    35     9    25    1
    36    10    26    1
    37    10    27    1
    38    12    28    1
    39    13    29    1
    40    14    30    1
    41    18    38    1
    42    18    39    1
    43    20    40    1
    44    21    41    1
    45    22    42    1
