REMARK  3 active torsions:
REMARK  status: ('A' for Active; 'I' for Inactive)
REMARK    1  A    between atoms: O_1  and  C_2 
REMARK    2  A    between atoms: N_7  and  C_14 
REMARK    3  A    between atoms: C_14  and  C_15 
ROOT
ATOM      1  C   UNL d   1       0.444   0.294   1.173  0.00  0.00     0.077 A 
ATOM      2  C   UNL d   1       0.565   1.658   1.418  0.00  0.00     0.014 A 
ATOM      3  C   UNL d   1       1.153   2.665   0.495  0.00  0.00    -0.014 C 
ATOM      4  C   UNL d   1       1.234   3.981   0.897  0.00  0.00    -0.007 C 
ATOM      5  C   UNL d   1       0.989   4.360   2.311  0.00  0.00     0.261 C 
ATOM      6  N   UNL d   1       1.947   5.411   2.898  0.00  0.00     0.098 NA
ATOM      7  C   UNL d   1       0.947   6.436   2.713  0.00  0.00     0.278 C 
ATOM      8  C   UNL d   1       0.888   6.505   0.889  0.00  0.00     0.069 C 
ATOM      9  C   UNL d   1       1.340   5.119   0.117  0.00  0.00    -0.047 C 
ATOM     10  C   UNL d   1       1.941   4.866  -1.151  0.00  0.00     0.008 C 
ATOM     11  C   UNL d   1       2.054   3.529  -1.595  0.00  0.00     0.001 C 
ATOM     12  C   UNL d   1       1.581   2.448  -0.845  0.00  0.00     0.013 C 
ATOM     13  C   UNL d   1       0.364   3.423   3.293  0.00  0.00     0.080 C 
ATOM     14  C   UNL d   1       0.079   2.079   2.710  0.00  0.00    -0.042 A 
ATOM     15  C   UNL d   1      -0.502   1.194   3.621  0.00  0.00     0.008 A 
ATOM     16  C   UNL d   1      -0.574  -0.142   3.332  0.00  0.00     0.003 A 
ATOM     17  C   UNL d   1      -0.112  -0.591   2.090  0.00  0.00     0.037 A 
ENDROOT
BRANCH   6  18
ATOM     18  C   UNL d   1       3.060   6.195   2.249  0.00  0.00     0.273 C 
BRANCH  18  19
ATOM     19  C   UNL d   1       3.672   7.285   3.137  0.00  0.00     0.026 C 
ATOM     20  C   UNL d   1       4.650   6.625   4.019  0.00  0.00     0.007 C 
ENDBRANCH  18  19
ENDBRANCH   6  18
BRANCH   1  21
ATOM     21  O   UNL d   1       0.966  -0.308   0.052  0.00  0.00    -0.360 OA
ATOM     22  H   UNL d   1       1.892  -0.021   0.024  0.00  0.00     0.217 HD
ENDBRANCH   1  21
TORSDOF 3
